# This easyconfig was created by James Carpenter of the BEAR Software team at the University of Birmingham.
name = 'LS-DYNA'
version = '11.2.2'
_version_und = version.replace('.', '_')

homepage = 'https://www.oasys-software.com/dyna/'
description = """LS-DYNA, developed by Livermore Software Technology Corporation (LSTC), is a multi-purpose explicit
 and implicit finite element and multiphysics program used to analyse the nonlinear response of structures."""

toolchain = {'name': 'iccifort', 'version': '2020.4.304'}

source_urls = ['https://www.oasys-software.com/dyna/wp-content/uploads/2021/06/']
sources = [
    f'%(namelower)s_smp_s_R{_version_und}_x64_centos610_ifort160.tgz_extractor.sh_.zip',
    f'%(namelower)s_smp_d_R{_version_und}_x64_centos610_ifort160.tgz_extractor.sh_.zip',
    f'%(namelower)s_mpp_s_R{_version_und}_x64_centos610_ifort160_sse2_intelmpi-2018.tgz_extractor.sh_.zip',
    f'%(namelower)s_mpp_d_R{_version_und}_x64_centos610_ifort160_sse2_intelmpi-2018.tgz_extractor.sh_.zip',
    f'%(namelower)s_mpp_s_R{_version_und}_x64_centos610_ifort160_avx2_intelmpi-2018.tgz_extractor.sh_.zip',
    f'%(namelower)s_mpp_d_R{_version_und}_x64_centos610_ifort160_avx2_intelmpi-2018.tgz_extractor.sh_.zip',
    f'%(namelower)s_mpp_s_R{_version_und}_x64_centos610_ifort160_avx512_intelmpi-2018.tgz_extractor.sh_.zip',
    f'%(namelower)s_mpp_d_R{_version_und}_x64_centos610_ifort160_avx512_intelmpi-2018.tgz_extractor.sh_.zip',
]
checksums = [
    # ls-dyna_smp_s_R11_2_2_x64_centos610_ifort160.tgz_extractor.sh_.zip
    'b26b68ccf520acec615a4484e02241bd30f6118fa1c970a316a9e2b9cc48611a',
    # ls-dyna_smp_d_R11_2_2_x64_centos610_ifort160.tgz_extractor.sh_.zip
    'da2c5a5d07b0bed1b29aad1d69477d6adb3ae2ee9b60d34bfbedab189069629b',
    # ls-dyna_mpp_s_R11_2_2_x64_centos610_ifort160_sse2_intelmpi-2018.tgz_extractor.sh_.zip
    '9c252f1d07f80c53c6b6679df9dc1f349cd4c6cdcae37a21f30ca22be16037c8',
    # ls-dyna_mpp_d_R11_2_2_x64_centos610_ifort160_sse2_intelmpi-2018.tgz_extractor.sh_.zip
    'ac44e9306b4ad04804378fa5be9614430683d0fe4bcc88381f53e43dd120f8ab',
    # ls-dyna_mpp_s_R11_2_2_x64_centos610_ifort160_avx2_intelmpi-2018.tgz_extractor.sh_.zip
    '74cfaea76c4e7235b04b2365187a7d0ffcf5a082df4bf804ea2dbfabab18007e',
    # ls-dyna_mpp_d_R11_2_2_x64_centos610_ifort160_avx2_intelmpi-2018.tgz_extractor.sh_.zip
    '46a223f655b34dd0b9018c748faa4ff8f14c448809115735eb16588848d9c11c',
    # ls-dyna_mpp_s_R11_2_2_x64_centos610_ifort160_avx512_intelmpi-2018.tgz_extractor.sh_.zip
    'a28e6c9c5f144ecf151b6167ba61532a6577044ebeeaf9e9b3797bc14377459f',
    # ls-dyna_mpp_d_R11_2_2_x64_centos610_ifort160_avx512_intelmpi-2018.tgz_extractor.sh_.zip
    'e5b8f9c34c6072f1e55d2bd6a84f416ea6c387c246a02d70cd50389cf454584c',
]

dependencies = [('impi', '2019.12.320')]

modextrapaths = {'PATH': ['']}

moduleclass = 'cae'
